<?xml version="1.0" encoding="UTF-8"?>

<!-- generated on 2024-01-22 18:52:58 by Eclipse SUMO netedit Version 1.19.0
<configuration xmlns:xsi="http://www.w3.org/2001/XMLSchema-instance" xsi:noNamespaceSchemaLocation="http://sumo.dlr.de/xsd/neteditConfiguration.xsd">

    <input>
        <sumo-net-file value="C:\Users\kriehl\Desktop\FollowupIntersections\Manhattan3x3\Network.net.xml"/>
    </input>

    <output>
        <output-file value="C:\Users\kriehl\Desktop\FollowupIntersections\Manhattan3x3\Network.net.xml"/>
    </output>

    <processing>
        <geometry.min-radius.fix.railways value="false"/>
        <geometry.max-grade.fix value="false"/>
        <offset.disable-normalization value="true"/>
        <lefthand value="0"/>
    </processing>

    <junctions>
        <no-turnarounds value="true"/>
        <junctions.corner-detail value="5"/>
        <junctions.limit-turn-speed value="5.50"/>
        <rectangular-lane-cut value="0"/>
    </junctions>

    <pedestrian>
        <walkingareas value="0"/>
    </pedestrian>

</configuration>
-->

<net version="1.16" junctionCornerDetail="5" limitTurnSpeed="5.50" xmlns:xsi="http://www.w3.org/2001/XMLSchema-instance" xsi:noNamespaceSchemaLocation="http://sumo.dlr.de/xsd/net_file.xsd">

    <location netOffset="0.00,0.00" convBoundary="-100.00,-400.00,700.00,400.00" origBoundary="-10000000000.00,-10000000000.00,10000000000.00,10000000000.00" projParameter="!"/>

    <edge id=":J1_0" function="internal">
        <lane id=":J1_0_0" index="0" speed="13.89" length="0.10" shape="100.00,104.80 100.00,104.80"/>
        <lane id=":J1_0_1" index="1" speed="13.89" length="0.10" shape="100.00,101.60 100.00,101.60"/>
    </edge>
    <edge id=":J1_2" function="internal">
        <lane id=":J1_2_0" index="0" speed="13.89" length="0.10" shape="100.00,95.20 100.00,95.20"/>
        <lane id=":J1_2_1" index="1" speed="13.89" length="0.10" shape="100.00,98.40 100.00,98.40"/>
    </edge>
    <edge id=":J10_0" function="internal">
        <lane id=":J10_0_0" index="0" speed="13.89" length="0.10" shape="295.20,200.00 295.20,200.00"/>
        <lane id=":J10_0_1" index="1" speed="13.89" length="0.10" shape="298.40,200.00 298.40,200.00"/>
    </edge>
    <edge id=":J10_2" function="internal">
        <lane id=":J10_2_0" index="0" speed="13.89" length="0.10" shape="304.80,200.00 304.80,200.00"/>
        <lane id=":J10_2_1" index="1" speed="13.89" length="0.10" shape="301.60,200.00 301.60,200.00"/>
    </edge>
    <edge id=":J12_0" function="internal">
        <lane id=":J12_0_0" index="0" speed="13.89" length="0.10" shape="395.20,200.00 395.20,200.00"/>
        <lane id=":J12_0_1" index="1" speed="13.89" length="0.10" shape="398.40,200.00 398.40,200.00"/>
    </edge>
    <edge id=":J12_2" function="internal">
        <lane id=":J12_2_0" index="0" speed="13.89" length="0.10" shape="404.80,200.00 404.80,200.00"/>
        <lane id=":J12_2_1" index="1" speed="13.89" length="0.10" shape="401.60,200.00 401.60,200.00"/>
    </edge>
    <edge id=":J13_0" function="internal">
        <lane id=":J13_0_0" index="0" speed="13.89" length="0.10" shape="500.00,104.80 500.00,104.80"/>
        <lane id=":J13_0_1" index="1" speed="13.89" length="0.10" shape="500.00,101.60 500.00,101.60"/>
    </edge>
    <edge id=":J13_2" function="internal">
        <lane id=":J13_2_0" index="0" speed="13.89" length="0.10" shape="500.00,95.20 500.00,95.20"/>
        <lane id=":J13_2_1" index="1" speed="13.89" length="0.10" shape="500.00,98.40 500.00,98.40"/>
    </edge>
    <edge id=":J15_0" function="internal">
        <lane id=":J15_0_0" index="0" speed="13.89" length="0.10" shape="500.00,4.80 500.00,4.80"/>
        <lane id=":J15_0_1" index="1" speed="13.89" length="0.10" shape="500.00,1.60 500.00,1.60"/>
    </edge>
    <edge id=":J15_2" function="internal">
        <lane id=":J15_2_0" index="0" speed="13.89" length="0.10" shape="500.00,-4.80 500.00,-4.80"/>
        <lane id=":J15_2_1" index="1" speed="13.89" length="0.10" shape="500.00,-1.60 500.00,-1.60"/>
    </edge>
    <edge id=":J17_0" function="internal">
        <lane id=":J17_0_0" index="0" speed="13.89" length="0.10" shape="500.00,-95.20 500.00,-95.20"/>
        <lane id=":J17_0_1" index="1" speed="13.89" length="0.10" shape="500.00,-98.40 500.00,-98.40"/>
    </edge>
    <edge id=":J17_2" function="internal">
        <lane id=":J17_2_0" index="0" speed="13.89" length="0.10" shape="500.00,-104.80 500.00,-104.80"/>
        <lane id=":J17_2_1" index="1" speed="13.89" length="0.10" shape="500.00,-101.60 500.00,-101.60"/>
    </edge>
    <edge id=":J19_0" function="internal">
        <lane id=":J19_0_0" index="0" speed="13.89" length="0.10" shape="195.20,-200.00 195.20,-200.00"/>
        <lane id=":J19_0_1" index="1" speed="13.89" length="0.10" shape="198.40,-200.00 198.40,-200.00"/>
    </edge>
    <edge id=":J19_2" function="internal">
        <lane id=":J19_2_0" index="0" speed="13.89" length="0.10" shape="204.80,-200.00 204.80,-200.00"/>
        <lane id=":J19_2_1" index="1" speed="13.89" length="0.10" shape="201.60,-200.00 201.60,-200.00"/>
    </edge>
    <edge id=":J21_0" function="internal">
        <lane id=":J21_0_0" index="0" speed="13.89" length="0.10" shape="295.20,-200.00 295.20,-200.00"/>
        <lane id=":J21_0_1" index="1" speed="13.89" length="0.10" shape="298.40,-200.00 298.40,-200.00"/>
    </edge>
    <edge id=":J21_2" function="internal">
        <lane id=":J21_2_0" index="0" speed="13.89" length="0.10" shape="304.80,-200.00 304.80,-200.00"/>
        <lane id=":J21_2_1" index="1" speed="13.89" length="0.10" shape="301.60,-200.00 301.60,-200.00"/>
    </edge>
    <edge id=":J23_0" function="internal">
        <lane id=":J23_0_0" index="0" speed="13.89" length="0.10" shape="395.20,-200.00 395.20,-200.00"/>
        <lane id=":J23_0_1" index="1" speed="13.89" length="0.10" shape="398.40,-200.00 398.40,-200.00"/>
    </edge>
    <edge id=":J23_2" function="internal">
        <lane id=":J23_2_0" index="0" speed="13.89" length="0.10" shape="404.80,-200.00 404.80,-200.00"/>
        <lane id=":J23_2_1" index="1" speed="13.89" length="0.10" shape="401.60,-200.00 401.60,-200.00"/>
    </edge>
    <edge id=":J25_0" function="internal">
        <lane id=":J25_0_0" index="0" speed="6.51" length="9.03" shape="195.20,110.40 194.85,107.95 193.80,106.20 192.05,105.15 189.60,104.80"/>
    </edge>
    <edge id=":J25_1" function="internal">
        <lane id=":J25_1_0" index="0" speed="13.89" length="20.80" shape="195.20,110.40 195.20,89.60"/>
    </edge>
    <edge id=":J25_2" function="internal">
        <lane id=":J25_2_0" index="0" speed="9.26" length="19.35" shape="198.40,110.40 199.15,105.15 201.40,101.40 205.15,99.15 210.40,98.40"/>
    </edge>
    <edge id=":J25_3" function="internal">
        <lane id=":J25_3_0" index="0" speed="6.51" length="9.03" shape="210.40,104.80 207.95,105.15 206.20,106.20 205.15,107.95 204.80,110.40"/>
    </edge>
    <edge id=":J25_4" function="internal">
        <lane id=":J25_4_0" index="0" speed="13.89" length="20.80" shape="210.40,104.80 189.60,104.80"/>
    </edge>
    <edge id=":J25_5" function="internal">
        <lane id=":J25_5_0" index="0" speed="9.26" length="10.42" shape="210.40,101.60 205.15,100.85 201.40,98.60 201.02,97.96"/>
    </edge>
    <edge id=":J25_12" function="internal">
        <lane id=":J25_12_0" index="0" speed="9.26" length="8.93" shape="201.02,97.96 199.15,94.85 198.40,89.60"/>
    </edge>
    <edge id=":J25_6" function="internal">
        <lane id=":J25_6_0" index="0" speed="6.51" length="9.03" shape="204.80,89.60 205.15,92.05 206.20,93.80 207.95,94.85 210.40,95.20"/>
    </edge>
    <edge id=":J25_7" function="internal">
        <lane id=":J25_7_0" index="0" speed="13.89" length="20.80" shape="204.80,89.60 204.80,110.40"/>
    </edge>
    <edge id=":J25_8" function="internal">
        <lane id=":J25_8_0" index="0" speed="9.26" length="19.35" shape="201.60,89.60 200.85,94.85 198.60,98.60 194.85,100.85 189.60,101.60"/>
    </edge>
    <edge id=":J25_9" function="internal">
        <lane id=":J25_9_0" index="0" speed="6.51" length="9.03" shape="189.60,95.20 192.05,94.85 193.80,93.80 194.85,92.05 195.20,89.60"/>
    </edge>
    <edge id=":J25_10" function="internal">
        <lane id=":J25_10_0" index="0" speed="13.89" length="20.80" shape="189.60,95.20 210.40,95.20"/>
    </edge>
    <edge id=":J25_11" function="internal">
        <lane id=":J25_11_0" index="0" speed="9.26" length="10.42" shape="189.60,98.40 194.85,99.15 198.60,101.40 198.98,102.04"/>
    </edge>
    <edge id=":J25_13" function="internal">
        <lane id=":J25_13_0" index="0" speed="9.26" length="8.93" shape="198.98,102.04 200.85,105.15 201.60,110.40"/>
    </edge>
    <edge id=":J26_0" function="internal">
        <lane id=":J26_0_0" index="0" speed="6.51" length="9.03" shape="295.20,110.40 294.85,107.95 293.80,106.20 292.05,105.15 289.60,104.80"/>
    </edge>
    <edge id=":J26_1" function="internal">
        <lane id=":J26_1_0" index="0" speed="13.89" length="20.80" shape="295.20,110.40 295.20,89.60"/>
    </edge>
    <edge id=":J26_2" function="internal">
        <lane id=":J26_2_0" index="0" speed="9.26" length="19.35" shape="298.40,110.40 299.15,105.15 301.40,101.40 305.15,99.15 310.40,98.40"/>
    </edge>
    <edge id=":J26_3" function="internal">
        <lane id=":J26_3_0" index="0" speed="6.51" length="9.03" shape="310.40,104.80 307.95,105.15 306.20,106.20 305.15,107.95 304.80,110.40"/>
    </edge>
    <edge id=":J26_4" function="internal">
        <lane id=":J26_4_0" index="0" speed="13.89" length="20.80" shape="310.40,104.80 289.60,104.80"/>
    </edge>
    <edge id=":J26_5" function="internal">
        <lane id=":J26_5_0" index="0" speed="9.26" length="19.35" shape="310.40,101.60 305.15,100.85 301.40,98.60 299.15,94.85 298.40,89.60"/>
    </edge>
    <edge id=":J26_6" function="internal">
        <lane id=":J26_6_0" index="0" speed="6.51" length="9.03" shape="304.80,89.60 305.15,92.05 306.20,93.80 307.95,94.85 310.40,95.20"/>
    </edge>
    <edge id=":J26_7" function="internal">
        <lane id=":J26_7_0" index="0" speed="13.89" length="20.80" shape="304.80,89.60 304.80,110.40"/>
    </edge>
    <edge id=":J26_8" function="internal">
        <lane id=":J26_8_0" index="0" speed="9.26" length="19.35" shape="301.60,89.60 300.85,94.85 298.60,98.60 294.85,100.85 289.60,101.60"/>
    </edge>
    <edge id=":J26_9" function="internal">
        <lane id=":J26_9_0" index="0" speed="6.51" length="9.03" shape="289.60,95.20 292.05,94.85 293.80,93.80 294.85,92.05 295.20,89.60"/>
    </edge>
    <edge id=":J26_10" function="internal">
        <lane id=":J26_10_0" index="0" speed="13.89" length="20.80" shape="289.60,95.20 310.40,95.20"/>
    </edge>
    <edge id=":J26_11" function="internal">
        <lane id=":J26_11_0" index="0" speed="9.26" length="19.35" shape="289.60,98.40 294.85,99.15 298.60,101.40 300.85,105.15 301.60,110.40"/>
    </edge>
    <edge id=":J27_0" function="internal">
        <lane id=":J27_0_0" index="0" speed="6.51" length="9.03" shape="395.20,110.40 394.85,107.95 393.80,106.20 392.05,105.15 389.60,104.80"/>
    </edge>
    <edge id=":J27_1" function="internal">
        <lane id=":J27_1_0" index="0" speed="13.89" length="20.80" shape="395.20,110.40 395.20,89.60"/>
    </edge>
    <edge id=":J27_2" function="internal">
        <lane id=":J27_2_0" index="0" speed="9.26" length="10.42" shape="398.40,110.40 399.15,105.15 401.40,101.40 402.04,101.02"/>
    </edge>
    <edge id=":J27_12" function="internal">
        <lane id=":J27_12_0" index="0" speed="9.26" length="8.93" shape="402.04,101.02 405.15,99.15 410.40,98.40"/>
    </edge>
    <edge id=":J27_3" function="internal">
        <lane id=":J27_3_0" index="0" speed="6.51" length="9.03" shape="410.40,104.80 407.95,105.15 406.20,106.20 405.15,107.95 404.80,110.40"/>
    </edge>
    <edge id=":J27_4" function="internal">
        <lane id=":J27_4_0" index="0" speed="13.89" length="20.80" shape="410.40,104.80 389.60,104.80"/>
    </edge>
    <edge id=":J27_5" function="internal">
        <lane id=":J27_5_0" index="0" speed="9.26" length="10.42" shape="410.40,101.60 405.15,100.85 401.40,98.60 401.02,97.96"/>
    </edge>
    <edge id=":J27_13" function="internal">
        <lane id=":J27_13_0" index="0" speed="9.26" length="8.93" shape="401.02,97.96 399.15,94.85 398.40,89.60"/>
    </edge>
    <edge id=":J27_6" function="internal">
        <lane id=":J27_6_0" index="0" speed="6.51" length="9.03" shape="404.80,89.60 405.15,92.05 406.20,93.80 407.95,94.85 410.40,95.20"/>
    </edge>
    <edge id=":J27_7" function="internal">
        <lane id=":J27_7_0" index="0" speed="13.89" length="20.80" shape="404.80,89.60 404.80,110.40"/>
    </edge>
    <edge id=":J27_8" function="internal">
        <lane id=":J27_8_0" index="0" speed="9.26" length="10.42" shape="401.60,89.60 400.85,94.85 398.60,98.60 397.96,98.98"/>
    </edge>
    <edge id=":J27_14" function="internal">
        <lane id=":J27_14_0" index="0" speed="9.26" length="8.93" shape="397.96,98.98 394.85,100.85 389.60,101.60"/>
    </edge>
    <edge id=":J27_9" function="internal">
        <lane id=":J27_9_0" index="0" speed="6.51" length="9.03" shape="389.60,95.20 392.05,94.85 393.80,93.80 394.85,92.05 395.20,89.60"/>
    </edge>
    <edge id=":J27_10" function="internal">
        <lane id=":J27_10_0" index="0" speed="13.89" length="20.80" shape="389.60,95.20 410.40,95.20"/>
    </edge>
    <edge id=":J27_11" function="internal">
        <lane id=":J27_11_0" index="0" speed="9.26" length="10.42" shape="389.60,98.40 394.85,99.15 398.60,101.40 398.98,102.04"/>
    </edge>
    <edge id=":J27_15" function="internal">
        <lane id=":J27_15_0" index="0" speed="9.26" length="8.93" shape="398.98,102.04 400.85,105.15 401.60,110.40"/>
    </edge>
    <edge id=":J28_0" function="internal">
        <lane id=":J28_0_0" index="0" speed="6.51" length="9.03" shape="195.20,10.40 194.85,7.95 193.80,6.20 192.05,5.15 189.60,4.80"/>
    </edge>
    <edge id=":J28_1" function="internal">
        <lane id=":J28_1_0" index="0" speed="13.89" length="20.80" shape="195.20,10.40 195.20,-10.40"/>
    </edge>
    <edge id=":J28_2" function="internal">
        <lane id=":J28_2_0" index="0" speed="9.26" length="10.42" shape="198.40,10.40 199.15,5.15 201.40,1.40 202.04,1.02"/>
    </edge>
    <edge id=":J28_12" function="internal">
        <lane id=":J28_12_0" index="0" speed="9.26" length="8.93" shape="202.04,1.02 205.15,-0.85 210.40,-1.60"/>
    </edge>
    <edge id=":J28_3" function="internal">
        <lane id=":J28_3_0" index="0" speed="6.51" length="9.03" shape="210.40,4.80 207.95,5.15 206.20,6.20 205.15,7.95 204.80,10.40"/>
    </edge>
    <edge id=":J28_4" function="internal">
        <lane id=":J28_4_0" index="0" speed="13.89" length="20.80" shape="210.40,4.80 189.60,4.80"/>
    </edge>
    <edge id=":J28_5" function="internal">
        <lane id=":J28_5_0" index="0" speed="9.26" length="10.42" shape="210.40,1.60 205.15,0.85 201.40,-1.40 201.02,-2.04"/>
    </edge>
    <edge id=":J28_13" function="internal">
        <lane id=":J28_13_0" index="0" speed="9.26" length="8.93" shape="201.02,-2.04 199.15,-5.15 198.40,-10.40"/>
    </edge>
    <edge id=":J28_6" function="internal">
        <lane id=":J28_6_0" index="0" speed="6.51" length="9.03" shape="204.80,-10.40 205.15,-7.95 206.20,-6.20 207.95,-5.15 210.40,-4.80"/>
    </edge>
    <edge id=":J28_7" function="internal">
        <lane id=":J28_7_0" index="0" speed="13.89" length="20.80" shape="204.80,-10.40 204.80,10.40"/>
    </edge>
    <edge id=":J28_8" function="internal">
        <lane id=":J28_8_0" index="0" speed="9.26" length="10.42" shape="201.60,-10.40 200.85,-5.15 198.60,-1.40 197.96,-1.02"/>
    </edge>
    <edge id=":J28_14" function="internal">
        <lane id=":J28_14_0" index="0" speed="9.26" length="8.93" shape="197.96,-1.02 194.85,0.85 189.60,1.60"/>
    </edge>
    <edge id=":J28_9" function="internal">
        <lane id=":J28_9_0" index="0" speed="6.51" length="9.03" shape="189.60,-4.80 192.05,-5.15 193.80,-6.20 194.85,-7.95 195.20,-10.40"/>
    </edge>
    <edge id=":J28_10" function="internal">
        <lane id=":J28_10_0" index="0" speed="13.89" length="20.80" shape="189.60,-4.80 210.40,-4.80"/>
    </edge>
    <edge id=":J28_11" function="internal">
        <lane id=":J28_11_0" index="0" speed="9.26" length="10.42" shape="189.60,-1.60 194.85,-0.85 198.60,1.40 198.98,2.04"/>
    </edge>
    <edge id=":J28_15" function="internal">
        <lane id=":J28_15_0" index="0" speed="9.26" length="8.93" shape="198.98,2.04 200.85,5.15 201.60,10.40"/>
    </edge>
    <edge id=":J29_0" function="internal">
        <lane id=":J29_0_0" index="0" speed="6.51" length="9.03" shape="195.20,-89.60 194.85,-92.05 193.80,-93.80 192.05,-94.85 189.60,-95.20"/>
    </edge>
    <edge id=":J29_1" function="internal">
        <lane id=":J29_1_0" index="0" speed="13.89" length="20.80" shape="195.20,-89.60 195.20,-110.40"/>
    </edge>
    <edge id=":J29_2" function="internal">
        <lane id=":J29_2_0" index="0" speed="9.26" length="10.42" shape="198.40,-89.60 199.15,-94.85 201.40,-98.60 202.04,-98.98"/>
    </edge>
    <edge id=":J29_12" function="internal">
        <lane id=":J29_12_0" index="0" speed="9.26" length="8.93" shape="202.04,-98.98 205.15,-100.85 210.40,-101.60"/>
    </edge>
    <edge id=":J29_3" function="internal">
        <lane id=":J29_3_0" index="0" speed="6.51" length="9.03" shape="210.40,-95.20 207.95,-94.85 206.20,-93.80 205.15,-92.05 204.80,-89.60"/>
    </edge>
    <edge id=":J29_4" function="internal">
        <lane id=":J29_4_0" index="0" speed="13.89" length="20.80" shape="210.40,-95.20 189.60,-95.20"/>
    </edge>
    <edge id=":J29_5" function="internal">
        <lane id=":J29_5_0" index="0" speed="9.26" length="10.42" shape="210.40,-98.40 205.15,-99.15 201.40,-101.40 201.02,-102.04"/>
    </edge>
    <edge id=":J29_13" function="internal">
        <lane id=":J29_13_0" index="0" speed="9.26" length="8.93" shape="201.02,-102.04 199.15,-105.15 198.40,-110.40"/>
    </edge>
    <edge id=":J29_6" function="internal">
        <lane id=":J29_6_0" index="0" speed="6.51" length="9.03" shape="204.80,-110.40 205.15,-107.95 206.20,-106.20 207.95,-105.15 210.40,-104.80"/>
    </edge>
    <edge id=":J29_7" function="internal">
        <lane id=":J29_7_0" index="0" speed="13.89" length="20.80" shape="204.80,-110.40 204.80,-89.60"/>
    </edge>
    <edge id=":J29_8" function="internal">
        <lane id=":J29_8_0" index="0" speed="9.26" length="10.42" shape="201.60,-110.40 200.85,-105.15 198.60,-101.40 197.96,-101.02"/>
    </edge>
    <edge id=":J29_14" function="internal">
        <lane id=":J29_14_0" index="0" speed="9.26" length="8.93" shape="197.96,-101.02 194.85,-99.15 189.60,-98.40"/>
    </edge>
    <edge id=":J29_9" function="internal">
        <lane id=":J29_9_0" index="0" speed="6.51" length="9.03" shape="189.60,-104.80 192.05,-105.15 193.80,-106.20 194.85,-107.95 195.20,-110.40"/>
    </edge>
    <edge id=":J29_10" function="internal">
        <lane id=":J29_10_0" index="0" speed="13.89" length="20.80" shape="189.60,-104.80 210.40,-104.80"/>
    </edge>
    <edge id=":J29_11" function="internal">
        <lane id=":J29_11_0" index="0" speed="9.26" length="10.42" shape="189.60,-101.60 194.85,-100.85 198.60,-98.60 198.98,-97.96"/>
    </edge>
    <edge id=":J29_15" function="internal">
        <lane id=":J29_15_0" index="0" speed="9.26" length="8.93" shape="198.98,-97.96 200.85,-94.85 201.60,-89.60"/>
    </edge>
    <edge id=":J3_0" function="internal">
        <lane id=":J3_0_0" index="0" speed="13.89" length="0.10" shape="100.00,4.80 100.00,4.80"/>
        <lane id=":J3_0_1" index="1" speed="13.89" length="0.10" shape="100.00,1.60 100.00,1.60"/>
    </edge>
    <edge id=":J3_2" function="internal">
        <lane id=":J3_2_0" index="0" speed="13.89" length="0.10" shape="100.00,-4.80 100.00,-4.80"/>
        <lane id=":J3_2_1" index="1" speed="13.89" length="0.10" shape="100.00,-1.60 100.00,-1.60"/>
    </edge>
    <edge id=":J30_0" function="internal">
        <lane id=":J30_0_0" index="0" speed="6.51" length="9.03" shape="295.20,10.40 294.85,7.95 293.80,6.20 292.05,5.15 289.60,4.80"/>
    </edge>
    <edge id=":J30_1" function="internal">
        <lane id=":J30_1_0" index="0" speed="13.89" length="20.80" shape="295.20,10.40 295.20,-10.40"/>
    </edge>
    <edge id=":J30_2" function="internal">
        <lane id=":J30_2_0" index="0" speed="9.26" length="10.42" shape="298.40,10.40 299.15,5.15 301.40,1.40 302.04,1.02"/>
    </edge>
    <edge id=":J30_12" function="internal">
        <lane id=":J30_12_0" index="0" speed="9.26" length="8.93" shape="302.04,1.02 305.15,-0.85 310.40,-1.60"/>
    </edge>
    <edge id=":J30_3" function="internal">
        <lane id=":J30_3_0" index="0" speed="6.51" length="9.03" shape="310.40,4.80 307.95,5.15 306.20,6.20 305.15,7.95 304.80,10.40"/>
    </edge>
    <edge id=":J30_4" function="internal">
        <lane id=":J30_4_0" index="0" speed="13.89" length="20.80" shape="310.40,4.80 289.60,4.80"/>
    </edge>
    <edge id=":J30_5" function="internal">
        <lane id=":J30_5_0" index="0" speed="9.26" length="10.42" shape="310.40,1.60 305.15,0.85 301.40,-1.40 301.02,-2.04"/>
    </edge>
    <edge id=":J30_13" function="internal">
        <lane id=":J30_13_0" index="0" speed="9.26" length="8.93" shape="301.02,-2.04 299.15,-5.15 298.40,-10.40"/>
    </edge>
    <edge id=":J30_6" function="internal">
        <lane id=":J30_6_0" index="0" speed="6.51" length="9.03" shape="304.80,-10.40 305.15,-7.95 306.20,-6.20 307.95,-5.15 310.40,-4.80"/>
    </edge>
    <edge id=":J30_7" function="internal">
        <lane id=":J30_7_0" index="0" speed="13.89" length="20.80" shape="304.80,-10.40 304.80,10.40"/>
    </edge>
    <edge id=":J30_8" function="internal">
        <lane id=":J30_8_0" index="0" speed="9.26" length="10.42" shape="301.60,-10.40 300.85,-5.15 298.60,-1.40 297.96,-1.02"/>
    </edge>
    <edge id=":J30_14" function="internal">
        <lane id=":J30_14_0" index="0" speed="9.26" length="8.93" shape="297.96,-1.02 294.85,0.85 289.60,1.60"/>
    </edge>
    <edge id=":J30_9" function="internal">
        <lane id=":J30_9_0" index="0" speed="6.51" length="9.03" shape="289.60,-4.80 292.05,-5.15 293.80,-6.20 294.85,-7.95 295.20,-10.40"/>
    </edge>
    <edge id=":J30_10" function="internal">
        <lane id=":J30_10_0" index="0" speed="13.89" length="20.80" shape="289.60,-4.80 310.40,-4.80"/>
    </edge>
    <edge id=":J30_11" function="internal">
        <lane id=":J30_11_0" index="0" speed="9.26" length="10.42" shape="289.60,-1.60 294.85,-0.85 298.60,1.40 298.98,2.04"/>
    </edge>
    <edge id=":J30_15" function="internal">
        <lane id=":J30_15_0" index="0" speed="9.26" length="8.93" shape="298.98,2.04 300.85,5.15 301.60,10.40"/>
    </edge>
    <edge id=":J31_0" function="internal">
        <lane id=":J31_0_0" index="0" speed="6.51" length="9.03" shape="395.20,10.40 394.85,7.95 393.80,6.20 392.05,5.15 389.60,4.80"/>
    </edge>
    <edge id=":J31_1" function="internal">
        <lane id=":J31_1_0" index="0" speed="13.89" length="20.80" shape="395.20,10.40 395.20,-10.40"/>
    </edge>
    <edge id=":J31_2" function="internal">
        <lane id=":J31_2_0" index="0" speed="9.26" length="10.42" shape="398.40,10.40 399.15,5.15 401.40,1.40 402.04,1.02"/>
    </edge>
    <edge id=":J31_12" function="internal">
        <lane id=":J31_12_0" index="0" speed="9.26" length="8.93" shape="402.04,1.02 405.15,-0.85 410.40,-1.60"/>
    </edge>
    <edge id=":J31_3" function="internal">
        <lane id=":J31_3_0" index="0" speed="6.51" length="9.03" shape="410.40,4.80 407.95,5.15 406.20,6.20 405.15,7.95 404.80,10.40"/>
    </edge>
    <edge id=":J31_4" function="internal">
        <lane id=":J31_4_0" index="0" speed="13.89" length="20.80" shape="410.40,4.80 389.60,4.80"/>
    </edge>
    <edge id=":J31_5" function="internal">
        <lane id=":J31_5_0" index="0" speed="9.26" length="10.42" shape="410.40,1.60 405.15,0.85 401.40,-1.40 401.02,-2.04"/>
    </edge>
    <edge id=":J31_13" function="internal">
        <lane id=":J31_13_0" index="0" speed="9.26" length="8.93" shape="401.02,-2.04 399.15,-5.15 398.40,-10.40"/>
    </edge>
    <edge id=":J31_6" function="internal">
        <lane id=":J31_6_0" index="0" speed="6.51" length="9.03" shape="404.80,-10.40 405.15,-7.95 406.20,-6.20 407.95,-5.15 410.40,-4.80"/>
    </edge>
    <edge id=":J31_7" function="internal">
        <lane id=":J31_7_0" index="0" speed="13.89" length="20.80" shape="404.80,-10.40 404.80,10.40"/>
    </edge>
    <edge id=":J31_8" function="internal">
        <lane id=":J31_8_0" index="0" speed="9.26" length="10.42" shape="401.60,-10.40 400.85,-5.15 398.60,-1.40 397.96,-1.02"/>
    </edge>
    <edge id=":J31_14" function="internal">
        <lane id=":J31_14_0" index="0" speed="9.26" length="8.93" shape="397.96,-1.02 394.85,0.85 389.60,1.60"/>
    </edge>
    <edge id=":J31_9" function="internal">
        <lane id=":J31_9_0" index="0" speed="6.51" length="9.03" shape="389.60,-4.80 392.05,-5.15 393.80,-6.20 394.85,-7.95 395.20,-10.40"/>
    </edge>
    <edge id=":J31_10" function="internal">
        <lane id=":J31_10_0" index="0" speed="13.89" length="20.80" shape="389.60,-4.80 410.40,-4.80"/>
    </edge>
    <edge id=":J31_11" function="internal">
        <lane id=":J31_11_0" index="0" speed="9.26" length="10.42" shape="389.60,-1.60 394.85,-0.85 398.60,1.40 398.98,2.04"/>
    </edge>
    <edge id=":J31_15" function="internal">
        <lane id=":J31_15_0" index="0" speed="9.26" length="8.93" shape="398.98,2.04 400.85,5.15 401.60,10.40"/>
    </edge>
    <edge id=":J32_0" function="internal">
        <lane id=":J32_0_0" index="0" speed="6.51" length="9.03" shape="295.20,-89.60 294.85,-92.05 293.80,-93.80 292.05,-94.85 289.60,-95.20"/>
    </edge>
    <edge id=":J32_1" function="internal">
        <lane id=":J32_1_0" index="0" speed="13.89" length="20.80" shape="295.20,-89.60 295.20,-110.40"/>
    </edge>
    <edge id=":J32_2" function="internal">
        <lane id=":J32_2_0" index="0" speed="9.26" length="10.42" shape="298.40,-89.60 299.15,-94.85 301.40,-98.60 302.04,-98.98"/>
    </edge>
    <edge id=":J32_12" function="internal">
        <lane id=":J32_12_0" index="0" speed="9.26" length="8.93" shape="302.04,-98.98 305.15,-100.85 310.40,-101.60"/>
    </edge>
    <edge id=":J32_3" function="internal">
        <lane id=":J32_3_0" index="0" speed="6.51" length="9.03" shape="310.40,-95.20 307.95,-94.85 306.20,-93.80 305.15,-92.05 304.80,-89.60"/>
    </edge>
    <edge id=":J32_4" function="internal">
        <lane id=":J32_4_0" index="0" speed="13.89" length="20.80" shape="310.40,-95.20 289.60,-95.20"/>
    </edge>
    <edge id=":J32_5" function="internal">
        <lane id=":J32_5_0" index="0" speed="9.26" length="10.42" shape="310.40,-98.40 305.15,-99.15 301.40,-101.40 301.02,-102.04"/>
    </edge>
    <edge id=":J32_13" function="internal">
        <lane id=":J32_13_0" index="0" speed="9.26" length="8.93" shape="301.02,-102.04 299.15,-105.15 298.40,-110.40"/>
    </edge>
    <edge id=":J32_6" function="internal">
        <lane id=":J32_6_0" index="0" speed="6.51" length="9.03" shape="304.80,-110.40 305.15,-107.95 306.20,-106.20 307.95,-105.15 310.40,-104.80"/>
    </edge>
    <edge id=":J32_7" function="internal">
        <lane id=":J32_7_0" index="0" speed="13.89" length="20.80" shape="304.80,-110.40 304.80,-89.60"/>
    </edge>
    <edge id=":J32_8" function="internal">
        <lane id=":J32_8_0" index="0" speed="9.26" length="10.42" shape="301.60,-110.40 300.85,-105.15 298.60,-101.40 297.96,-101.02"/>
    </edge>
    <edge id=":J32_14" function="internal">
        <lane id=":J32_14_0" index="0" speed="9.26" length="8.93" shape="297.96,-101.02 294.85,-99.15 289.60,-98.40"/>
    </edge>
    <edge id=":J32_9" function="internal">
        <lane id=":J32_9_0" index="0" speed="6.51" length="9.03" shape="289.60,-104.80 292.05,-105.15 293.80,-106.20 294.85,-107.95 295.20,-110.40"/>
    </edge>
    <edge id=":J32_10" function="internal">
        <lane id=":J32_10_0" index="0" speed="13.89" length="20.80" shape="289.60,-104.80 310.40,-104.80"/>
    </edge>
    <edge id=":J32_11" function="internal">
        <lane id=":J32_11_0" index="0" speed="9.26" length="10.42" shape="289.60,-101.60 294.85,-100.85 298.60,-98.60 298.98,-97.96"/>
    </edge>
    <edge id=":J32_15" function="internal">
        <lane id=":J32_15_0" index="0" speed="9.26" length="8.93" shape="298.98,-97.96 300.85,-94.85 301.60,-89.60"/>
    </edge>
    <edge id=":J33_0" function="internal">
        <lane id=":J33_0_0" index="0" speed="6.51" length="9.03" shape="395.20,-89.60 394.85,-92.05 393.80,-93.80 392.05,-94.85 389.60,-95.20"/>
    </edge>
    <edge id=":J33_1" function="internal">
        <lane id=":J33_1_0" index="0" speed="13.89" length="20.80" shape="395.20,-89.60 395.20,-110.40"/>
    </edge>
    <edge id=":J33_2" function="internal">
        <lane id=":J33_2_0" index="0" speed="9.26" length="10.42" shape="398.40,-89.60 399.15,-94.85 401.40,-98.60 402.04,-98.98"/>
    </edge>
    <edge id=":J33_12" function="internal">
        <lane id=":J33_12_0" index="0" speed="9.26" length="8.93" shape="402.04,-98.98 405.15,-100.85 410.40,-101.60"/>
    </edge>
    <edge id=":J33_3" function="internal">
        <lane id=":J33_3_0" index="0" speed="6.51" length="9.03" shape="410.40,-95.20 407.95,-94.85 406.20,-93.80 405.15,-92.05 404.80,-89.60"/>
    </edge>
    <edge id=":J33_4" function="internal">
        <lane id=":J33_4_0" index="0" speed="13.89" length="20.80" shape="410.40,-95.20 389.60,-95.20"/>
    </edge>
    <edge id=":J33_5" function="internal">
        <lane id=":J33_5_0" index="0" speed="9.26" length="10.42" shape="410.40,-98.40 405.15,-99.15 401.40,-101.40 401.02,-102.04"/>
    </edge>
    <edge id=":J33_13" function="internal">